[General]
network = vanet

vanet.Road_Length = 5000
vanet.Num_Of_SRVs = 2
vanet.Num_Of_AVs_Per_SRV = 5
vanet.Amount_Of_Frequencies_At_SRV = 50
vanet.SRV_Transmission_Range = 200
vanet.Emergency_FLOOD_Transmission_Time_In_Seconds = 0.0001
vanet.Keep_Alive_Msg_Period = 0.5
vanet.NumOfLanes = 3
vanet.PercentageOfCrazyDrivers= 15
vanet.P_laneswtich = 0.3
vanet.WimaxQueueSize = 50

sim-time-limit = 600s